e3_lig_1
                    3D
 Structure written by MMmdl.
 21 23  0  0  1  0            999 V2000
   69.1010   44.8030   51.4950 C   0  0  0  0  0  0
   69.5280   43.4980   51.6850 C   0  0  0  0  0  0
   69.5690   42.6230   50.6090 C   0  0  0  0  0  0
   69.1890   43.0420   49.3440 C   0  0  0  0  0  0
   68.7630   44.3560   49.1670 C   0  0  0  0  0  0
   68.3060   45.0600   47.9430 C   0  0  0  0  0  0
   67.5090   47.4100   47.4480 C   0  0  1  0  0  0
   66.0100   47.6130   47.6210 C   0  0  0  0  0  0
   65.5510   48.7440   46.7090 C   0  0  0  0  0  0
   66.3530   50.0000   46.8660 C   0  0  0  0  0  0
   68.2790   48.6990   47.6530 C   0  0  0  0  0  0
   68.7140   45.2410   50.2210 C   0  0  0  0  0  0
   68.2240   46.5470   49.7160 C   0  0  0  0  0  0
   68.0000   46.3670   48.3460 N   0  0  0  0  0  0
   67.6350   49.8670   47.3330 N   0  0  0  0  0  0
   69.4290   48.6980   48.0860 O   0  0  0  0  0  0
   65.9020   51.1090   46.5950 O   0  0  0  0  0  0
   68.2010   44.6390   46.8070 O   0  0  0  0  0  0
   68.0380   47.5860   50.3220 O   0  0  0  0  0  0
   69.0562   45.6664   52.5500 O   0  0  0  0  0  0
   68.7410   46.5223   52.2505 H   0  0  0  0  0  0
  1  2  1  0  0  0
  1 12  2  0  0  0
  1 20  1  0  0  0
  2  3  2  0  0  0
  3  4  1  0  0  0
  4  5  2  0  0  0
  5 12  1  0  0  0
  5  6  1  0  0  0
  6 14  1  0  0  0
  6 18  2  0  0  0
  7  8  1  0  0  0
  7 11  1  0  0  0
  7 14  1  0  0  0
  8  9  1  0  0  0
  9 10  1  0  0  0
 10 15  1  0  0  0
 10 17  2  0  0  0
 11 16  2  0  0  0
 11 15  1  0  0  0
 12 13  1  0  0  0
 13 19  2  0  0  0
 13 14  1  0  0  0
 20 21  1  0  0  0
M  END
> <s_m_entry_id>
2

> <s_m_entry_name>
e3_lig.1

> <chiral flag>
1

> <version>
0

> <s_m_Source_Path>
D:\CADD\protac\docking\benchmark\bound\structure_no_refine\bound_6BN7

> <s_m_Source_File>
e3_lig.sdf

> <i_m_Source_File_Index>
1

$$$$
